*SPEF "IEEE 1481-1998"
*DESIGN "xxx"
*DATE "Thu May  4 13:20:22 2023"
*VENDOR "xxx"
*PROGRAM "xxx"
*VERSION "19.10"
*DESIGN_FLOW "COUPLING C" "PIN_CAP NONE" "NAME_SCOPE LOCAL"
*DIVIDER /
*DELIMITER :
*BUS_DELIMITER []
*T_UNIT 1 NS
*C_UNIT 1 PF
*R_UNIT 1 OHM
*L_UNIT 1 HENRY

*NAME_MAP
*1 FE_OFN0_text_out_80
*2 CTS_23
*3 CTS_22
*4 CTS_19
*5 CTS_18
*6 CTS_21
*7 CTS_20
*8 CTS_15
*9 CTS_14
*10 CTS_17
*11 CTS_16
*12 CTS_13
*13 CTS_10
*14 CTS_9
*15 CTS_12
*16 CTS_11
*17 CTS_6
*85 key[71]
*33487 u0\/_0977_
*33272 _4310_
*16463 FE_OFC0_text_out_80
*16379 w1\[20\]
*32302 _2454_
*356 text_out[56]

*PORTS
*25 I *C 772.08 0.242
*26 O *C 669.36 1020.56
*27 I *C 825.84 1020.56
*28 I *C 45.36 1020.56
*29 I *C 293.04 1020.56
*30 I *C 789.36 1020.56
*31 I *C 0.4 651.57
*32 I *C 836.4 0.242
*33 I *C 174 0.242
*34 I *C 0.4 438.45
*35 I *C 0.4 99.53
*36 I *C 109.68 1020.56
*37 I *C 633.84 0.242

*D_NET *1 0.0521595

*CONN
*I *33272:Q O *C 635.66 405.835 *L 0 *D sky130_fd_sc_hd__dfxtp_1
*I *16463:A I *C 271.2 406.205 *L 0.00211 *D sky130_fd_sc_hd__clkbuf_4


*CAP
31 *85:30 0.00568181
32 *85:25 *16379:6 0.000701398
33 *33487:A2 *16379:6 1.35303e-05
34 *85:23 *16379:8 0.000701398
35 *85:23 *32302:A 4.29153e-06
36 *85:15 *356:19 0.000238806
37 *85:14 *356:18 0.000291616
38 *85:13 *356:19 0.000593245
39 *85:12 *356:18 0.000629127
40 *85:12 *356:16 1.29342e-05

*RES
1 *85:30 *85 39.3069
2 *85:29 *85:30 84.2451
3 *85:28 *85:29 84.4183
4 *85:27 *85:26 9.65965
5 *85:25 *85:24 1.98019
6 *33487:A2 *85:23 26.7006
7 *85:23 *85:25 120.152
8 *85:24 *85:22 77.3044
9 *85:21 *85:20 51.7062
10 *85:22 *85:21 50.3713
11 *85:20 *85:19 55.458
12 *85:18 *85:17 19.9859
13 *85:16 *85:18 37.7228
14 *85:19 *85:16 7.73919
15 *85:17 *85:15 38.7005
16 *85:15 *85:14 31.0397
17 *85:14 *85:13 6.93071
18 *85:13 *85:12 54.0347
19 *85:11 *85:10 2.54953
20 *85:9 *85:11 94.3317
21 *85:12 *85:8 5.69379
22 *85:26 *85:7 13.8412
23 *85:10 *85:27 114.208
24 *85:6 *85:9 2.46286
25 *85:8 *85:6 47.7971
26 *85:7 *85:5 47.6114
27 *85:5 *85:4 23.8738
28 *85:4 *85:3 30.8911
29 *85:3 *85:2 19.3357
30 *85:2 *85:28 83.9604
*END