*SPEF "IEEE 1481-1998"
*DESIGN "gcd"
*DATE "Tue May  9 10:57:48 2023"
*VENDOR "Cadence Design Systems, Inc."
*PROGRAM "Innovus"
*VERSION "19.10-p002_1"
*DESIGN_FLOW "COUPLING C" "PIN_CAP NONE" "NAME_SCOPE LOCAL"
*DIVIDER /
*DELIMITER :
*BUS_DELIMITER []
*T_UNIT 1 NS
*C_UNIT 1 PF
*R_UNIT 1 OHM
*L_UNIT 1 HENRY

// MMMC spef file for corner 'max'

*NAME_MAP

*1 FE_OFN0_ctrl__00
*2 resp_val
*3 resp_rdy
*4 reset
*5 req_val
*6 req_rdy
*7 clk
*8 req_msg[31]
*9 req_msg[30]
*10 req_msg[29]
*11 req_msg[28]
*12 req_msg[27]
*13 req_msg[26]
*14 req_msg[25]
*15 req_msg[24]
*16 req_msg[23]
*17 req_msg[22]
*18 req_msg[21]
*19 req_msg[20]
*20 req_msg[19]
*21 req_msg[18]
*22 req_msg[17]
*23 req_msg[16]
*24 req_msg[15]
*25 req_msg[14]
*26 req_msg[13]
*27 req_msg[12]
*28 req_msg[11]
*29 req_msg[10]
*30 req_msg[9]
*31 req_msg[8]
*32 req_msg[7]
*33 req_msg[6]
*34 req_msg[5]
*35 req_msg[4]
*36 req_msg[3]
*37 req_msg[2]
*38 req_msg[1]
*39 req_msg[0]
*40 resp_msg[15]
*41 resp_msg[14]
*42 resp_msg[13]
*43 resp_msg[12]
*44 resp_msg[11]
*45 resp_msg[10]
*46 resp_msg[9]
*47 resp_msg[8]
*48 resp_msg[7]
*49 resp_msg[6]
*50 resp_msg[5]
*51 resp_msg[4]
*52 resp_msg[3]
*53 resp_msg[2]
*54 resp_msg[1]
*55 resp_msg[0]
*56 dpath\/sub\/_104_
*57 dpath\/sub\/_103_
*58 dpath\/sub\/_102_
*59 dpath\/sub\/_101_
*60 dpath\/sub\/_100_
*61 dpath\/sub\/_099_
*62 dpath\/sub\/_098_
*63 dpath\/sub\/_097_
*64 dpath\/sub\/_096_
*65 dpath\/sub\/_095_
*66 dpath\/sub\/_094_
*67 dpath\/sub\/_093_
*68 dpath\/sub\/_092_
*69 dpath\/sub\/_091_
*70 dpath\/sub\/_090_
*71 dpath\/sub\/_089_
*72 dpath\/sub\/_088_
*73 dpath\/sub\/_087_
*74 dpath\/sub\/_086_
*75 dpath\/sub\/_085_
*76 dpath\/sub\/_084_
*77 dpath\/sub\/_083_
*78 dpath\/sub\/_082_
*79 dpath\/sub\/_081_
*80 dpath\/sub\/_080_
*81 dpath\/sub\/_079_
*82 dpath\/sub\/_078_
*83 dpath\/sub\/_077_
*84 dpath\/sub\/_076_
*85 dpath\/sub\/_075_
*86 dpath\/sub\/_074_
*87 dpath\/sub\/_073_
*88 dpath\/sub\/_072_
*89 dpath\/sub\/_071_
*90 dpath\/sub\/_070_
*91 dpath\/sub\/_069_
*92 dpath\/sub\/_068_
*93 dpath\/sub\/_067_
*94 dpath\/sub\/_066_
*95 dpath\/sub\/_065_
*96 dpath\/sub\/_064_
*97 dpath\/sub\/_062_
*98 dpath\/sub\/_061_
*99 dpath\/sub\/_060_
*100 dpath\/sub\/_059_
*101 dpath\/sub\/_058_
*102 dpath\/sub\/_057_
*103 dpath\/sub\/_056_
*104 dpath\/sub\/_054_
*105 dpath\/sub\/_053_
*106 dpath\/sub\/_052_
*107 dpath\/sub\/_051_
*108 dpath\/sub\/_050_
*109 dpath\/sub\/_049_
*110 dpath\/sub\/_048_
*111 dpath\/sub\/_047_
*112 dpath\/sub\/_046_
*113 dpath\/sub\/_045_
*114 dpath\/sub\/_044_
*115 dpath\/sub\/_043_
*116 dpath\/sub\/_042_
*117 dpath\/sub\/_041_
*118 dpath\/sub\/_040_
*119 dpath\/sub\/_038_
*120 dpath\/sub\/_037_
*121 dpath\/sub\/_036_
*122 dpath\/sub\/_035_
*123 dpath\/sub\/_034_
*124 dpath\/sub\/_033_
*125 dpath\/sub\/_032_
*126 dpath\/b_zero\/_24_
*127 dpath\/b_zero\/_23_
*128 dpath\/b_zero\/_22_
*129 dpath\/b_zero\/_21_
*130 dpath\/b_zero\/_20_
*131 dpath\/b_zero\/_19_
*132 dpath\/b_zero\/_18_
*133 dpath\/b_zero\/_17_
*134 dpath\/b_zero\/_16_
*135 dpath\/b_reg\/_031_
*136 dpath\/b_reg\/_030_
*137 dpath\/b_reg\/_029_
*138 dpath\/b_reg\/_028_
*139 dpath\/b_reg\/_027_
*140 dpath\/b_reg\/_026_
*141 dpath\/b_reg\/_025_
*142 dpath\/b_reg\/_024_
*143 dpath\/b_reg\/_023_
*144 dpath\/b_reg\/_022_
*145 dpath\/b_reg\/_021_
*146 dpath\/b_reg\/_020_
*147 dpath\/b_reg\/_019_
*148 dpath\/b_reg\/_018_
*149 dpath\/b_reg\/_017_
*150 dpath\/b_reg\/_016_
*151 dpath\/b_mux\/_048_
*152 dpath\/b_mux\/_047_
*153 dpath\/b_mux\/_046_
*154 dpath\/b_mux\/_045_
*155 dpath\/b_mux\/_044_
*156 dpath\/b_mux\/_043_
*157 dpath\/b_mux\/_042_
*158 dpath\/b_mux\/_041_
*159 dpath\/b_mux\/_040_
*160 dpath\/b_mux\/_039_
*161 dpath\/b_mux\/_038_
*162 dpath\/b_mux\/_037_
*163 dpath\/b_mux\/_036_
*164 dpath\/b_mux\/_035_
*165 dpath\/b_mux\/_034_
*166 dpath\/b_mux\/_033_
*167 dpath\/a_reg\/_031_
*168 dpath\/a_reg\/_030_
*169 dpath\/a_reg\/_029_
*170 dpath\/a_reg\/_028_
*171 dpath\/a_reg\/_027_
*172 dpath\/a_reg\/_026_
*173 dpath\/a_reg\/_025_
*174 dpath\/a_reg\/_024_
*175 dpath\/a_reg\/_023_
*176 dpath\/a_reg\/_022_
*177 dpath\/a_reg\/_021_
*178 dpath\/a_reg\/_020_
*179 dpath\/a_reg\/_019_
*180 dpath\/a_reg\/_018_
*181 dpath\/a_reg\/_017_
*182 dpath\/a_reg\/_016_
*183 dpath\/a_mux\/_103_
*184 dpath\/a_mux\/_102_
*185 dpath\/a_mux\/_101_
*186 dpath\/a_mux\/_100_
*187 dpath\/a_mux\/_099_
*188 dpath\/a_mux\/_098_
*189 dpath\/a_mux\/_097_
*190 dpath\/a_mux\/_096_
*191 dpath\/a_mux\/_095_
*192 dpath\/a_mux\/_094_
*193 dpath\/a_mux\/_093_
*194 dpath\/a_mux\/_092_
*195 dpath\/a_mux\/_091_
*196 dpath\/a_mux\/_090_
*197 dpath\/a_mux\/_089_
*198 dpath\/a_mux\/_088_
*199 dpath\/a_mux\/_087_
*200 dpath\/a_mux\/_086_
*201 dpath\/a_mux\/_085_
*202 dpath\/a_mux\/_084_
*203 dpath\/a_mux\/_083_
*204 dpath\/a_mux\/_082_
*205 dpath\/a_mux\/_081_
*206 dpath\/a_mux\/_080_
*207 dpath\/a_mux\/_078_
*208 dpath\/a_mux\/_076_
*209 dpath\/a_mux\/_075_
*210 dpath\/a_mux\/_074_
*211 dpath\/a_mux\/_073_
*212 dpath\/a_mux\/_072_
*213 dpath\/a_mux\/_071_
*214 dpath\/a_mux\/_070_
*215 dpath\/a_mux\/_067_
*216 dpath\/a_mux\/_063_
*217 dpath\/a_mux\/_062_
*218 dpath\/a_mux\/_061_
*219 dpath\/a_mux\/_060_
*220 dpath\/a_mux\/_059_
*221 dpath\/a_mux\/_058_
*222 dpath\/a_mux\/_057_
*223 dpath\/a_mux\/_056_
*224 dpath\/a_mux\/_055_
*225 dpath\/a_mux\/_054_
*226 dpath\/a_mux\/_053_
*227 dpath\/a_mux\/_052_
*228 dpath\/a_mux\/_051_
*229 dpath\/a_mux\/_050_
*230 dpath\/a_mux\/_049_
*231 dpath\/a_mux\/_048_
*232 dpath\/a_lt_b\/_087_
*233 dpath\/a_lt_b\/_086_
*234 dpath\/a_lt_b\/_085_
*235 dpath\/a_lt_b\/_084_
*236 dpath\/a_lt_b\/_083_
*237 dpath\/a_lt_b\/_082_
*238 dpath\/a_lt_b\/_081_
*239 dpath\/a_lt_b\/_080_
*240 dpath\/a_lt_b\/_079_
*241 dpath\/a_lt_b\/_078_
*242 dpath\/a_lt_b\/_077_
*243 dpath\/a_lt_b\/_076_
*244 dpath\/a_lt_b\/_075_
*245 dpath\/a_lt_b\/_074_
*246 dpath\/a_lt_b\/_072_
*247 dpath\/a_lt_b\/_071_
*248 dpath\/a_lt_b\/_070_
*249 dpath\/a_lt_b\/_069_
*250 dpath\/a_lt_b\/_068_
*251 dpath\/a_lt_b\/_067_
*252 dpath\/a_lt_b\/_066_
*253 dpath\/a_lt_b\/_065_
*254 dpath\/a_lt_b\/_064_
*255 dpath\/a_lt_b\/_063_
*256 dpath\/a_lt_b\/_062_
*257 dpath\/a_lt_b\/_061_
*258 dpath\/a_lt_b\/_060_
*259 dpath\/a_lt_b\/_059_
*260 dpath\/a_lt_b\/_058_
*261 dpath\/a_lt_b\/_057_
*262 dpath\/a_lt_b\/_056_
*263 dpath\/a_lt_b\/_055_
*264 dpath\/a_lt_b\/_054_
*265 dpath\/a_lt_b\/_053_
*266 dpath\/a_lt_b\/_051_
*267 dpath\/a_lt_b\/_050_
*268 dpath\/a_lt_b\/_049_
*269 dpath\/a_lt_b\/_048_
*270 dpath\/a_lt_b\/_047_
*271 dpath\/a_lt_b\/_046_
*272 dpath\/a_lt_b\/_045_
*273 dpath\/a_lt_b\/_044_
*274 dpath\/a_lt_b\/_043_
*275 dpath\/a_lt_b\/_042_
*276 dpath\/a_lt_b\/_041_
*277 dpath\/a_lt_b\/_040_
*278 dpath\/a_lt_b\/_038_
*279 dpath\/a_lt_b\/_037_
*280 dpath\/a_lt_b\/_036_
*281 dpath\/a_lt_b\/_035_
*282 dpath\/a_lt_b\/_034_
*283 dpath\/a_lt_b\/_032_
*284 dpath\/a_lt_b\$in1\[9\]
*285 dpath\/a_lt_b\$in1\[8\]
*286 dpath\/a_lt_b\$in1\[7\]
*287 dpath\/a_lt_b\$in1\[6\]
*288 dpath\/a_lt_b\$in1\[5\]
*289 dpath\/a_lt_b\$in1\[4\]
*290 dpath\/a_lt_b\$in1\[3\]
*291 dpath\/a_lt_b\$in1\[2\]
*292 dpath\/a_lt_b\$in1\[1\]
*293 dpath\/a_lt_b\$in1\[15\]
*294 dpath\/a_lt_b\$in1\[14\]
*295 dpath\/a_lt_b\$in1\[13\]
*296 dpath\/a_lt_b\$in1\[12\]
*297 dpath\/a_lt_b\$in1\[11\]
*298 dpath\/a_lt_b\$in1\[10\]
*299 dpath\/a_lt_b\$in1\[0\]
*300 dpath\/a_lt_b\$in0\[9\]
*301 dpath\/a_lt_b\$in0\[8\]
*302 dpath\/a_lt_b\$in0\[7\]
*303 dpath\/a_lt_b\$in0\[6\]
*304 dpath\/a_lt_b\$in0\[5\]
*305 dpath\/a_lt_b\$in0\[4\]
*306 dpath\/a_lt_b\$in0\[3\]
*307 dpath\/a_lt_b\$in0\[2\]
*308 dpath\/a_lt_b\$in0\[1\]
*309 dpath\/a_lt_b\$in0\[15\]
*310 dpath\/a_lt_b\$in0\[14\]
*311 dpath\/a_lt_b\$in0\[13\]
*312 dpath\/a_lt_b\$in0\[12\]
*313 dpath\/a_lt_b\$in0\[11\]
*314 dpath\/a_lt_b\$in0\[10\]
*315 dpath\/a_lt_b\$in0\[0\]
*316 ctrl\/state\/_03_
*317 ctrl\/state\/_02_
*318 ctrl\/curr_state__0\[1\]
*319 ctrl\/curr_state__0\[0\]
*320 ctrl\/_14_
*321 ctrl\/_13_
*322 ctrl\/_12_
*323 ctrl\/_11_
*324 ctrl\/_10_
*325 ctrl\/_09_
*326 ctrl\/_04_
*327 ctrl\/_02_
*328 ctrl\/_01_
*329 ctrl\/_00_
*330 FE_OFC0_ctrl__00
*331 dpath\/sub\/_209_
*332 dpath\/sub\/_208_
*333 dpath\/sub\/_207_
*334 dpath\/sub\/_206_
*335 dpath\/sub\/_205_
*336 dpath\/sub\/_204_
*337 dpath\/sub\/_203_
*338 dpath\/sub\/_202_
*339 dpath\/sub\/_201_
*340 dpath\/sub\/_199_
*341 dpath\/sub\/_198_
*342 dpath\/sub\/_197_
*343 dpath\/sub\/_196_
*344 dpath\/sub\/_195_
*345 dpath\/sub\/_194_
*346 dpath\/sub\/_193_
*347 dpath\/sub\/_192_
*348 dpath\/sub\/_191_
*349 dpath\/sub\/_190_
*350 dpath\/sub\/_189_
*351 dpath\/sub\/_188_
*352 dpath\/sub\/_187_
*353 dpath\/sub\/_186_
*354 dpath\/sub\/_185_
*355 dpath\/sub\/_184_
*356 dpath\/sub\/_183_
*357 dpath\/sub\/_182_
*358 dpath\/sub\/_180_
*359 dpath\/sub\/_179_
*360 dpath\/sub\/_178_
*361 dpath\/sub\/_177_
*362 dpath\/sub\/_176_
*363 dpath\/sub\/_175_
*364 dpath\/sub\/_174_
*365 dpath\/sub\/_173_
*366 dpath\/sub\/_172_
*367 dpath\/sub\/_171_
*368 dpath\/sub\/_170_
*369 dpath\/sub\/_169_
*370 dpath\/sub\/_168_
*371 dpath\/sub\/_167_
*372 dpath\/sub\/_166_
*373 dpath\/sub\/_165_
*374 dpath\/sub\/_164_
*375 dpath\/sub\/_163_
*376 dpath\/sub\/_162_
*377 dpath\/sub\/_161_
*378 dpath\/sub\/_160_
*379 dpath\/sub\/_159_
*380 dpath\/sub\/_158_
*381 dpath\/sub\/_157_
*382 dpath\/sub\/_156_
*383 dpath\/sub\/_155_
*384 dpath\/sub\/_154_
*385 dpath\/sub\/_153_
*386 dpath\/sub\/_152_
*387 dpath\/sub\/_151_
*388 dpath\/sub\/_150_
*389 dpath\/sub\/_149_
*390 dpath\/sub\/_148_
*391 dpath\/sub\/_147_
*392 dpath\/sub\/_146_
*393 dpath\/sub\/_145_
*394 dpath\/sub\/_144_
*395 dpath\/sub\/_143_
*396 dpath\/sub\/_142_
*397 dpath\/sub\/_141_
*398 dpath\/sub\/_140_
*399 dpath\/sub\/_139_
*400 dpath\/sub\/_138_
*401 dpath\/sub\/_137_
*402 dpath\/sub\/_136_
*403 dpath\/sub\/_135_
*404 dpath\/sub\/_134_
*405 dpath\/sub\/_133_
*406 dpath\/sub\/_132_
*407 dpath\/sub\/_131_
*408 dpath\/sub\/_130_
*409 dpath\/sub\/_129_
*410 dpath\/sub\/_128_
*411 dpath\/sub\/_127_
*412 dpath\/sub\/_126_
*413 dpath\/sub\/_125_
*414 dpath\/sub\/_124_
*415 dpath\/sub\/_123_
*416 dpath\/sub\/_121_
*417 dpath\/b_zero\/_33_
*418 dpath\/b_zero\/_32_
*419 dpath\/b_zero\/_31_
*420 dpath\/b_zero\/_30_
*421 dpath\/b_zero\/_29_
*422 dpath\/b_zero\/_28_
*423 dpath\/b_zero\/_27_
*424 dpath\/b_zero\/_26_
*425 dpath\/b_zero\/_25_
*426 dpath\/b_reg\/_147_
*427 dpath\/b_reg\/_146_
*428 dpath\/b_reg\/_145_
*429 dpath\/b_reg\/_144_
*430 dpath\/b_reg\/_143_
*431 dpath\/b_reg\/_142_
*432 dpath\/b_reg\/_141_
*433 dpath\/b_reg\/_140_
*434 dpath\/b_reg\/_139_
*435 dpath\/b_reg\/_138_
*436 dpath\/b_reg\/_137_
*437 dpath\/b_reg\/_136_
*438 dpath\/b_reg\/_135_
*439 dpath\/b_reg\/_134_
*440 dpath\/b_reg\/_133_
*441 dpath\/b_reg\/_132_
*442 dpath\/b_reg\/_082_
*443 dpath\/b_reg\/_081_
*444 dpath\/b_reg\/_080_
*445 dpath\/b_reg\/_079_
*446 dpath\/b_reg\/_078_
*447 dpath\/b_reg\/_077_
*448 dpath\/b_reg\/_076_
*449 dpath\/b_reg\/_075_
*450 dpath\/b_reg\/_074_
*451 dpath\/b_reg\/_073_
*452 dpath\/b_reg\/_072_
*453 dpath\/b_reg\/_071_
*454 dpath\/b_reg\/_070_
*455 dpath\/b_reg\/_069_
*456 dpath\/b_reg\/_068_
*457 dpath\/b_reg\/_067_
*458 dpath\/b_mux\/_066_
*459 dpath\/b_mux\/_065_
*460 dpath\/b_mux\/_064_
*461 dpath\/b_mux\/_063_
*462 dpath\/b_mux\/_062_
*463 dpath\/b_mux\/_061_
*464 dpath\/b_mux\/_060_
*465 dpath\/b_mux\/_059_
*466 dpath\/b_mux\/_058_
*467 dpath\/b_mux\/_057_
*468 dpath\/b_mux\/_056_
*469 dpath\/b_mux\/_055_
*470 dpath\/b_mux\/_054_
*471 dpath\/b_mux\/_053_
*472 dpath\/b_mux\/_052_
*473 dpath\/b_mux\/_051_
*474 dpath\/a_reg\/_147_
*475 dpath\/a_reg\/_146_
*476 dpath\/a_reg\/_145_
*477 dpath\/a_reg\/_144_
*478 dpath\/a_reg\/_143_
*479 dpath\/a_reg\/_142_
*480 dpath\/a_reg\/_141_
*481 dpath\/a_reg\/_140_
*482 dpath\/a_reg\/_139_
*483 dpath\/a_reg\/_138_
*484 dpath\/a_reg\/_137_
*485 dpath\/a_reg\/_136_
*486 dpath\/a_reg\/_135_
*487 dpath\/a_reg\/_134_
*488 dpath\/a_reg\/_133_
*489 dpath\/a_reg\/_132_
*490 dpath\/a_reg\/_082_
*491 dpath\/a_reg\/_081_
*492 dpath\/a_reg\/_080_
*493 dpath\/a_reg\/_079_
*494 dpath\/a_reg\/_078_
*495 dpath\/a_reg\/_077_
*496 dpath\/a_reg\/_076_
*497 dpath\/a_reg\/_075_
*498 dpath\/a_reg\/_074_
*499 dpath\/a_reg\/_073_
*500 dpath\/a_reg\/_072_
*501 dpath\/a_reg\/_071_
*502 dpath\/a_reg\/_070_
*503 dpath\/a_reg\/_069_
*504 dpath\/a_reg\/_068_
*505 dpath\/a_reg\/_067_
*506 dpath\/a_mux\/_161_
*507 dpath\/a_mux\/_160_
*508 dpath\/a_mux\/_159_
*509 dpath\/a_mux\/_158_
*510 dpath\/a_mux\/_157_
*511 dpath\/a_mux\/_156_
*512 dpath\/a_mux\/_155_
*513 dpath\/a_mux\/_154_
*514 dpath\/a_mux\/_153_
*515 dpath\/a_mux\/_152_
*516 dpath\/a_mux\/_151_
*517 dpath\/a_mux\/_150_
*518 dpath\/a_mux\/_149_
*519 dpath\/a_mux\/_148_
*520 dpath\/a_mux\/_147_
*521 dpath\/a_mux\/_146_
*522 dpath\/a_mux\/_145_
*523 dpath\/a_mux\/_144_
*524 dpath\/a_mux\/_143_
*525 dpath\/a_mux\/_142_
*526 dpath\/a_mux\/_141_
*527 dpath\/a_mux\/_140_
*528 dpath\/a_mux\/_139_
*529 dpath\/a_mux\/_138_
*530 dpath\/a_mux\/_137_
*531 dpath\/a_mux\/_136_
*532 dpath\/a_mux\/_135_
*533 dpath\/a_mux\/_134_
*534 dpath\/a_mux\/_133_
*535 dpath\/a_mux\/_132_
*536 dpath\/a_mux\/_131_
*537 dpath\/a_mux\/_130_
*538 dpath\/a_mux\/_129_
*539 dpath\/a_mux\/_128_
*540 dpath\/a_mux\/_127_
*541 dpath\/a_mux\/_125_
*542 dpath\/a_mux\/_123_
*543 dpath\/a_mux\/_122_
*544 dpath\/a_mux\/_121_
*545 dpath\/a_mux\/_120_
*546 dpath\/a_mux\/_119_
*547 dpath\/a_mux\/_118_
*548 dpath\/a_mux\/_117_
*549 dpath\/a_mux\/_116_
*550 dpath\/a_mux\/_115_
*551 dpath\/a_mux\/_114_
*552 dpath\/a_mux\/_113_
*553 dpath\/a_mux\/_110_
*554 dpath\/a_mux\/_106_
*555 dpath\/a_lt_b\/_143_
*556 dpath\/a_lt_b\/_142_
*557 dpath\/a_lt_b\/_141_
*558 dpath\/a_lt_b\/_140_
*559 dpath\/a_lt_b\/_139_
*560 dpath\/a_lt_b\/_138_
*561 dpath\/a_lt_b\/_137_
*562 dpath\/a_lt_b\/_136_
*563 dpath\/a_lt_b\/_135_
*564 dpath\/a_lt_b\/_134_
*565 dpath\/a_lt_b\/_133_
*566 dpath\/a_lt_b\/_132_
*567 dpath\/a_lt_b\/_131_
*568 dpath\/a_lt_b\/_130_
*569 dpath\/a_lt_b\/_128_
*570 dpath\/a_lt_b\/_127_
*571 dpath\/a_lt_b\/_126_
*572 dpath\/a_lt_b\/_125_
*573 dpath\/a_lt_b\/_124_
*574 dpath\/a_lt_b\/_123_
*575 dpath\/a_lt_b\/_122_
*576 dpath\/a_lt_b\/_121_
*577 dpath\/a_lt_b\/_120_
*578 dpath\/a_lt_b\/_119_
*579 dpath\/a_lt_b\/_118_
*580 dpath\/a_lt_b\/_117_
*581 dpath\/a_lt_b\/_116_
*582 dpath\/a_lt_b\/_115_
*583 dpath\/a_lt_b\/_114_
*584 dpath\/a_lt_b\/_113_
*585 dpath\/a_lt_b\/_112_
*586 dpath\/a_lt_b\/_111_
*587 dpath\/a_lt_b\/_110_
*588 dpath\/a_lt_b\/_109_
*589 dpath\/a_lt_b\/_107_
*590 dpath\/a_lt_b\/_106_
*591 dpath\/a_lt_b\/_105_
*592 dpath\/a_lt_b\/_104_
*593 dpath\/a_lt_b\/_103_
*594 dpath\/a_lt_b\/_102_
*595 dpath\/a_lt_b\/_101_
*596 dpath\/a_lt_b\/_100_
*597 dpath\/a_lt_b\/_099_
*598 dpath\/a_lt_b\/_098_
*599 dpath\/a_lt_b\/_097_
*600 dpath\/a_lt_b\/_096_
*601 dpath\/a_lt_b\/_094_
*602 dpath\/a_lt_b\/_093_
*603 dpath\/a_lt_b\/_092_
*604 dpath\/a_lt_b\/_091_
*605 dpath\/a_lt_b\/_090_
*606 dpath\/a_lt_b\/_088_
*607 ctrl\/state\/_15_
*608 ctrl\/state\/_14_
*609 ctrl\/state\/_08_
*610 ctrl\/state\/_07_
*611 ctrl\/_29_
*612 ctrl\/_28_
*613 ctrl\/_27_
*614 ctrl\/_26_
*615 ctrl\/_25_
*616 ctrl\/_24_
*617 ctrl\/_23_
*618 ctrl\/_22_
*619 ctrl\/_21_
*620 ctrl\/_20_
*621 ctrl\/_19_
*622 ctrl\/_18_
*623 TAP_774
*624 TAP_773
*625 TAP_772
*626 TAP_771
*627 TAP_770
*628 TAP_769
*629 TAP_768
*630 TAP_767
*631 TAP_766
*632 TAP_765
*633 TAP_764
*634 TAP_763
*635 TAP_762
*636 TAP_761
*637 TAP_760
*638 TAP_759
*639 TAP_758
*640 TAP_757
*641 TAP_756
*642 TAP_755
*643 TAP_754
*644 TAP_753
*645 TAP_752
*646 TAP_751
*647 TAP_750
*648 TAP_749
*649 TAP_748
*650 TAP_747
*651 TAP_746
*652 TAP_745
*653 TAP_744
*654 TAP_743
*655 TAP_742
*656 TAP_741
*657 TAP_740
*658 TAP_739
*659 TAP_738
*660 TAP_737
*661 TAP_736
*662 TAP_735
*663 TAP_734
*664 TAP_733
*665 TAP_732
*666 TAP_731
*667 TAP_730
*668 TAP_729
*669 TAP_728
*670 TAP_727
*671 TAP_726
*672 TAP_725
*673 TAP_724
*674 TAP_723
*675 TAP_722
*676 TAP_721
*677 TAP_720
*678 TAP_719
*679 TAP_718
*680 TAP_717
*681 TAP_716
*682 TAP_715
*683 TAP_714
*684 TAP_713
*685 TAP_712
*686 TAP_711
*687 TAP_710
*688 TAP_709
*689 TAP_708
*690 TAP_707
*691 TAP_706
*692 TAP_705
*693 TAP_704
*694 TAP_703
*695 TAP_702
*696 TAP_701
*697 TAP_700
*698 TAP_699
*699 TAP_698
*700 TAP_697
*701 TAP_696
*702 TAP_695
*703 TAP_694
*704 TAP_693
*705 TAP_692
*706 TAP_691
*707 TAP_690
*708 TAP_689
*709 TAP_688
*710 TAP_687
*711 TAP_686
*712 TAP_685
*713 TAP_684
*714 TAP_683
*715 TAP_682
*716 TAP_681
*717 TAP_680
*718 TAP_679
*719 TAP_678
*720 TAP_677
*721 TAP_676
*722 TAP_675
*723 TAP_674
*724 TAP_673
*725 TAP_672
*726 TAP_671
*727 TAP_670
*728 TAP_669
*729 TAP_668
*730 TAP_667
*731 TAP_666
*732 TAP_665
*733 TAP_664
*734 TAP_663
*735 TAP_662
*736 TAP_661
*737 TAP_660
*738 TAP_659
*739 TAP_658
*740 TAP_657
*741 TAP_656
*742 TAP_655
*743 TAP_654
*744 TAP_653
*745 TAP_652
*746 TAP_651
*747 TAP_650
*748 TAP_649
*749 TAP_648
*750 TAP_647
*751 TAP_646
*752 TAP_645
*753 TAP_644
*754 TAP_643
*755 TAP_642
*756 TAP_641
*757 TAP_640
*758 TAP_639
*759 TAP_638
*760 TAP_637
*761 TAP_636
*762 TAP_635
*763 TAP_634
*764 TAP_633
*765 TAP_632
*766 TAP_631
*767 TAP_630
*768 TAP_629
*769 TAP_628
*770 TAP_627
*771 TAP_626
*772 TAP_625
*773 TAP_624
*774 TAP_623
*775 TAP_622
*776 TAP_621
*777 TAP_620
*778 TAP_619
*779 TAP_618
*780 TAP_617
*781 TAP_616
*782 TAP_615
*783 TAP_614
*784 TAP_613
*785 TAP_612
*786 TAP_611
*787 TAP_610
*788 TAP_609
*789 TAP_608
*790 TAP_607
*791 TAP_606
*792 TAP_605
*793 TAP_604
*794 TAP_603
*795 TAP_602
*796 TAP_601
*797 TAP_600
*798 TAP_599
*799 TAP_598
*800 TAP_597
*801 TAP_596
*802 TAP_595
*803 TAP_594
*804 TAP_593
*805 TAP_592
*806 TAP_591
*807 TAP_590
*808 TAP_589
*809 TAP_588
*810 TAP_587
*811 TAP_586
*812 TAP_585
*813 TAP_584
*814 TAP_583
*815 TAP_582
*816 TAP_581
*817 TAP_580
*818 TAP_579
*819 TAP_578
*820 TAP_577
*821 TAP_576
*822 TAP_575
*823 TAP_574
*824 TAP_573
*825 TAP_572
*826 TAP_571
*827 TAP_570
*828 TAP_569
*829 TAP_568
*830 TAP_567
*831 TAP_566
*832 TAP_565
*833 TAP_564
*834 TAP_563
*835 TAP_562
*836 TAP_561
*837 TAP_560
*838 TAP_559
*839 TAP_558
*840 TAP_557
*841 TAP_556
*842 TAP_555
*843 TAP_554
*844 TAP_553
*845 TAP_552
*846 TAP_551
*847 TAP_550
*848 TAP_549
*849 TAP_548
*850 TAP_547
*851 TAP_546
*852 TAP_545
*853 TAP_544
*854 TAP_543
*855 TAP_542
*856 TAP_541
*857 TAP_540
*858 TAP_539
*859 TAP_538
*860 TAP_537
*861 TAP_536
*862 TAP_535
*863 TAP_534
*864 TAP_533
*865 TAP_532
*866 TAP_531
*867 TAP_530
*868 TAP_529
*869 TAP_528
*870 TAP_527
*871 TAP_526
*872 TAP_525
*873 TAP_524
*874 TAP_523
*875 TAP_522
*876 TAP_521
*877 TAP_520
*878 TAP_519
*879 TAP_518
*880 TAP_517
*881 TAP_516
*882 TAP_515
*883 TAP_514
*884 TAP_513
*885 TAP_512
*886 TAP_511
*887 TAP_510
*888 TAP_509
*889 TAP_508
*890 TAP_507
*891 TAP_506
*892 TAP_505
*893 TAP_504
*894 TAP_503
*895 TAP_502
*896 TAP_501
*897 TAP_500
*898 TAP_499
*899 TAP_498
*900 TAP_497
*901 TAP_496
*902 TAP_495
*903 TAP_494
*904 TAP_493
*905 TAP_492
*906 TAP_491
*907 TAP_490
*908 TAP_489
*909 TAP_488
*910 TAP_487
*911 TAP_486
*912 TAP_485
*913 TAP_484
*914 TAP_483
*915 TAP_482
*916 TAP_481
*917 TAP_480
*918 TAP_479
*919 TAP_478
*920 TAP_477
*921 TAP_476
*922 TAP_475
*923 TAP_474
*924 TAP_473
*925 TAP_472
*926 TAP_471
*927 TAP_470
*928 TAP_469
*929 TAP_468
*930 TAP_467
*931 TAP_466
*932 TAP_465
*933 TAP_464
*934 TAP_463
*935 TAP_462
*936 TAP_461
*937 TAP_460
*938 TAP_459
*939 TAP_458
*940 TAP_457
*941 TAP_456
*942 TAP_455
*943 TAP_454
*944 TAP_453
*945 TAP_452
*946 TAP_451
*947 TAP_450
*948 TAP_449
*949 TAP_448
*950 TAP_447
*951 TAP_446
*952 TAP_445
*953 TAP_444
*954 TAP_443
*955 TAP_442
*956 TAP_441
*957 TAP_440
*958 TAP_439
*959 TAP_438
*960 TAP_437
*961 TAP_436
*962 TAP_435
*963 TAP_434
*964 TAP_433
*965 TAP_432
*966 TAP_431
*967 TAP_430
*968 TAP_429
*969 TAP_428
*970 TAP_427
*971 TAP_426
*972 TAP_425
*973 TAP_424
*974 TAP_423
*975 TAP_422
*976 TAP_421
*977 TAP_420
*978 TAP_419
*979 TAP_418
*980 TAP_417
*981 TAP_416
*982 TAP_415
*983 TAP_414
*984 TAP_413
*985 TAP_412
*986 TAP_411
*987 TAP_410
*988 TAP_409
*989 TAP_408
*990 TAP_407
*991 TAP_406
*992 TAP_405
*993 TAP_404
*994 TAP_403
*995 TAP_402
*996 TAP_401
*997 TAP_400
*998 TAP_399
*999 TAP_398
*1000 TAP_397
*1001 TAP_396
*1002 TAP_395
*1003 TAP_394
*1004 TAP_393
*1005 TAP_392
*1006 TAP_391
*1007 TAP_390
*1008 TAP_389
*1009 TAP_388
*1010 TAP_387
*1011 TAP_386
*1012 TAP_385
*1013 TAP_384
*1014 TAP_383
*1015 TAP_382
*1016 TAP_381
*1017 TAP_380
*1018 TAP_379
*1019 TAP_378
*1020 TAP_377
*1021 TAP_376
*1022 TAP_375
*1023 TAP_374
*1024 TAP_373
*1025 TAP_372
*1026 TAP_371
*1027 TAP_370
*1028 TAP_369
*1029 TAP_368
*1030 TAP_367
*1031 TAP_366
*1032 TAP_365
*1033 TAP_364
*1034 TAP_363
*1035 TAP_362
*1036 TAP_361
*1037 TAP_360
*1038 TAP_359
*1039 TAP_358
*1040 TAP_357
*1041 TAP_356
*1042 TAP_355
*1043 TAP_354
*1044 TAP_353
*1045 TAP_352
*1046 TAP_351
*1047 TAP_350
*1048 TAP_349
*1049 TAP_348
*1050 TAP_347
*1051 TAP_346
*1052 TAP_345
*1053 TAP_344
*1054 TAP_343
*1055 TAP_342
*1056 TAP_341
*1057 TAP_340
*1058 TAP_339
*1059 TAP_338
*1060 TAP_337
*1061 TAP_336
*1062 TAP_335
*1063 TAP_334
*1064 TAP_333
*1065 TAP_332
*1066 TAP_331
*1067 TAP_330
*1068 TAP_329
*1069 TAP_328
*1070 TAP_327
*1071 TAP_326
*1072 TAP_325
*1073 TAP_324
*1074 TAP_323
*1075 TAP_322
*1076 TAP_321
*1077 TAP_320
*1078 TAP_319
*1079 TAP_318
*1080 TAP_317
*1081 TAP_316
*1082 TAP_315
*1083 TAP_314
*1084 TAP_313
*1085 TAP_312
*1086 TAP_311
*1087 TAP_310
*1088 TAP_309
*1089 TAP_308
*1090 TAP_307
*1091 TAP_306
*1092 TAP_305
*1093 TAP_304
*1094 TAP_303
*1095 TAP_302
*1096 TAP_301
*1097 TAP_300
*1098 TAP_299
*1099 TAP_298
*1100 TAP_297
*1101 TAP_296
*1102 TAP_295
*1103 TAP_294
*1104 TAP_293
*1105 TAP_292
*1106 TAP_291
*1107 TAP_290
*1108 TAP_289
*1109 TAP_288
*1110 TAP_287
*1111 TAP_286
*1112 TAP_285
*1113 TAP_284
*1114 TAP_283
*1115 TAP_282
*1116 TAP_281
*1117 TAP_280
*1118 TAP_279
*1119 TAP_278
*1120 TAP_277
*1121 TAP_276
*1122 TAP_275
*1123 TAP_274
*1124 TAP_273
*1125 TAP_272
*1126 TAP_271
*1127 TAP_270
*1128 TAP_269
*1129 TAP_268
*1130 TAP_267
*1131 TAP_266
*1132 TAP_265
*1133 TAP_264
*1134 TAP_263
*1135 TAP_262
*1136 TAP_261
*1137 TAP_260
*1138 TAP_259
*1139 TAP_258
*1140 TAP_257
*1141 TAP_256
*1142 TAP_255
*1143 TAP_254
*1144 TAP_253
*1145 TAP_252
*1146 TAP_251
*1147 TAP_250
*1148 TAP_249
*1149 TAP_248
*1150 TAP_247
*1151 TAP_246
*1152 TAP_245
*1153 TAP_244
*1154 TAP_243
*1155 TAP_242
*1156 TAP_241
*1157 TAP_240
*1158 TAP_239
*1159 TAP_238
*1160 TAP_237
*1161 TAP_236
*1162 TAP_235
*1163 TAP_234
*1164 TAP_233
*1165 TAP_232
*1166 TAP_231
*1167 TAP_230
*1168 TAP_229
*1169 TAP_228
*1170 TAP_227
*1171 TAP_226
*1172 TAP_225
*1173 TAP_224
*1174 TAP_223
*1175 TAP_222
*1176 TAP_221
*1177 TAP_220
*1178 TAP_219
*1179 TAP_218
*1180 TAP_217
*1181 TAP_216
*1182 TAP_215
*1183 TAP_214
*1184 TAP_213
*1185 TAP_212
*1186 TAP_211
*1187 TAP_210
*1188 TAP_209
*1189 TAP_208
*1190 TAP_207
*1191 TAP_206
*1192 TAP_205
*1193 TAP_204
*1194 TAP_203
*1195 TAP_202
*1196 TAP_201
*1197 TAP_200
*1198 TAP_199
*1199 TAP_198
*1200 TAP_197
*1201 TAP_196
*1202 TAP_195
*1203 TAP_194
*1204 TAP_193
*1205 TAP_192
*1206 TAP_191
*1207 TAP_190
*1208 TAP_189
*1209 TAP_188
*1210 TAP_187
*1211 TAP_186
*1212 TAP_185
*1213 TAP_184
*1214 TAP_183
*1215 TAP_182
*1216 TAP_181
*1217 TAP_180
*1218 TAP_179
*1219 TAP_178
*1220 TAP_177
*1221 TAP_176
*1222 TAP_175
*1223 TAP_174
*1224 TAP_173
*1225 TAP_172
*1226 TAP_171
*1227 TAP_170
*1228 TAP_169
*1229 TAP_168
*1230 TAP_167
*1231 TAP_166
*1232 TAP_165
*1233 TAP_164
*1234 TAP_163
*1235 TAP_162
*1236 TAP_161
*1237 TAP_160
*1238 PHY_99
*1239 PHY_98
*1240 PHY_97
*1241 PHY_96
*1242 PHY_95
*1243 PHY_94
*1244 PHY_93
*1245 PHY_92
*1246 PHY_91
*1247 PHY_90
*1248 PHY_9
*1249 PHY_89
*1250 PHY_88
*1251 PHY_87
*1252 PHY_86
*1253 PHY_85
*1254 PHY_84
*1255 PHY_83
*1256 PHY_82
*1257 PHY_81
*1258 PHY_80
*1259 PHY_8
*1260 PHY_79
*1261 PHY_78
*1262 PHY_77
*1263 PHY_76
*1264 PHY_75
*1265 PHY_74
*1266 PHY_73
*1267 PHY_72
*1268 PHY_71
*1269 PHY_70
*1270 PHY_7
*1271 PHY_69
*1272 PHY_68
*1273 PHY_67
*1274 PHY_66
*1275 PHY_65
*1276 PHY_64
*1277 PHY_63
*1278 PHY_62
*1279 PHY_61
*1280 PHY_60
*1281 PHY_6
*1282 PHY_59
*1283 PHY_58
*1284 PHY_57
*1285 PHY_56
*1286 PHY_55
*1287 PHY_54
*1288 PHY_53
*1289 PHY_52
*1290 PHY_51
*1291 PHY_50
*1292 PHY_5
*1293 PHY_49
*1294 PHY_48
*1295 PHY_47
*1296 PHY_46
*1297 PHY_45
*1298 PHY_44
*1299 PHY_43
*1300 PHY_42
*1301 PHY_41
*1302 PHY_40
*1303 PHY_4
*1304 PHY_39
*1305 PHY_38
*1306 PHY_37
*1307 PHY_36
*1308 PHY_35
*1309 PHY_34
*1310 PHY_33
*1311 PHY_32
*1312 PHY_31
*1313 PHY_30
*1314 PHY_3
*1315 PHY_29
*1316 PHY_28
*1317 PHY_27
*1318 PHY_26
*1319 PHY_25
*1320 PHY_24
*1321 PHY_23
*1322 PHY_22
*1323 PHY_21
*1324 PHY_20
*1325 PHY_2
*1326 PHY_19
*1327 PHY_18
*1328 PHY_17
*1329 PHY_16
*1330 PHY_159
*1331 PHY_158
*1332 PHY_157
*1333 PHY_156
*1334 PHY_155
*1335 PHY_154
*1336 PHY_153
*1337 PHY_152
*1338 PHY_151
*1339 PHY_150
*1340 PHY_15
*1341 PHY_149
*1342 PHY_148
*1343 PHY_147
*1344 PHY_146
*1345 PHY_145
*1346 PHY_144
*1347 PHY_143
*1348 PHY_142
*1349 PHY_141
*1350 PHY_140
*1351 PHY_14
*1352 PHY_139
*1353 PHY_138
*1354 PHY_137
*1355 PHY_136
*1356 PHY_135
*1357 PHY_134
*1358 PHY_133
*1359 PHY_132
*1360 PHY_131
*1361 PHY_130
*1362 PHY_13
*1363 PHY_129
*1364 PHY_128
*1365 PHY_127
*1366 PHY_126
*1367 PHY_125
*1368 PHY_124
*1369 PHY_123
*1370 PHY_122
*1371 PHY_121
*1372 PHY_120
*1373 PHY_12
*1374 PHY_119
*1375 PHY_118
*1376 PHY_117
*1377 PHY_116
*1378 PHY_115
*1379 PHY_114
*1380 PHY_113
*1381 PHY_112
*1382 PHY_111
*1383 PHY_110
*1384 PHY_11
*1385 PHY_109
*1386 PHY_108
*1387 PHY_107
*1388 PHY_106
*1389 PHY_105
*1390 PHY_104
*1391 PHY_103
*1392 PHY_102
*1393 PHY_101
*1394 PHY_100
*1395 PHY_10
*1396 PHY_1
*1397 PHY_0


*PORTS

*2 O *C 0 0
*3 I *C 0 0
*4 I *C 0 0
*5 I *C 0 0
*6 O *C 0 0
*7 I *C 0 0
*8 I *C 0 0
*9 I *C 0 0
*10 I *C 0 0
*11 I *C 0 0
*12 I *C 0 0
*13 I *C 0 0
*14 I *C 0 0
*15 I *C 0 0
*16 I *C 0 0
*17 I *C 0 0
*18 I *C 0 0
*19 I *C 0 0
*20 I *C 0 0
*21 I *C 0 0
*22 I *C 0 0
*23 I *C 0 0
*24 I *C 0 0
*25 I *C 0 0
*26 I *C 0 0
*27 I *C 0 0
*28 I *C 0 0
*29 I *C 0 0
*30 I *C 0 0
*31 I *C 0 0
*32 I *C 0 0
*33 I *C 0 0
*34 I *C 0 0
*35 I *C 0 0
*36 I *C 0 0
*37 I *C 0 0
*38 I *C 0 0
*39 I *C 0 0
*40 O *C 0 0
*41 O *C 0 0
*42 O *C 0 0
*43 O *C 0 0
*44 O *C 0 0
*45 O *C 0 0
*46 O *C 0 0
*47 O *C 0 0
*48 O *C 0 0
*49 O *C 0 0
*50 O *C 0 0
*51 O *C 0 0
*52 O *C 0 0
*53 O *C 0 0
*54 O *C 0 0
*55 O *C 0 0


*D_NET *1 0.0521268

*CONN
*I *546:A_N I *C 110.62 110.225 *L 0.00153 *D sky130_fd_sc_hd__and3b_1
*I *549:A_N I *C 103.26 129.135 *L 0.00153 *D sky130_fd_sc_hd__and3b_1
*I *547:B I *C 103.82 113.925 *L 0.00152 *D sky130_fd_sc_hd__and3b_1
*I *534:A_N I *C 133.18 115.665 *L 0.00153 *D sky130_fd_sc_hd__and3b_1
*I *540:A_N I *C 136.4 131.985 *L 0.00153 *D sky130_fd_sc_hd__and3b_1
*I *550:B I *C 96 130.245 *L 0.00152 *D sky130_fd_sc_hd__and3b_1
*I *507:A_N I *C 74.76 101.935 *L 0.00153 *D sky130_fd_sc_hd__and3b_1
*I *508:B I *C 74.84 98.235 *L 0.00152 *D sky130_fd_sc_hd__and3b_1
*I *544:B I *C 108.88 130.245 *L 0.00152 *D sky130_fd_sc_hd__and3b_1
*I *535:B I *C 142.46 109.115 *L 0.00152 *D sky130_fd_sc_hd__and3b_1
*I *543:A_N I *C 116.6 131.985 *L 0.00153 *D sky130_fd_sc_hd__and3b_1
*I *553:B I *C 83.58 130.245 *L 0.00152 *D sky130_fd_sc_hd__and3b_1
*I *541:B I *C 150.28 130.875 *L 0.00152 *D sky130_fd_sc_hd__and3b_1
*I *552:A_N I *C 90.84 129.135 *L 0.00153 *D sky130_fd_sc_hd__and3b_1
*I *537:A_N I *C 129.96 129.135 *L 0.00153 *D sky130_fd_sc_hd__and3b_1
*I *531:A_N I *C 147.88 99.345 *L 0.00153 *D sky130_fd_sc_hd__and3b_1
*I *532:B I *C 149.82 97.605 *L 0.00152 *D sky130_fd_sc_hd__and3b_1
*I *538:B I *C 143.2 130.875 *L 0.00152 *D sky130_fd_sc_hd__and3b_1
*I *525:A_N I *C 146.06 93.905 *L 0.00153 *D sky130_fd_sc_hd__and3b_1
*I *510:A_N I *C 76.6 80.175 *L 0.00153 *D sky130_fd_sc_hd__and3b_1
*I *528:A_N I *C 146.52 85.615 *L 0.00153 *D sky130_fd_sc_hd__and3b_1
*I *513:A_N I *C 83.96 74.735 *L 0.00153 *D sky130_fd_sc_hd__and3b_1
*I *529:B I *C 148.44 71.035 *L 0.00152 *D sky130_fd_sc_hd__and3b_1
*I *514:B I *C 89.1 65.595 *L 0.00152 *D sky130_fd_sc_hd__and3b_1
*I *511:B I *C 76.22 75.845 *L 0.00152 *D sky130_fd_sc_hd__and3b_1
*I *526:B I *C 148.44 76.475 *L 0.00152 *D sky130_fd_sc_hd__and3b_1
*I *516:A_N I *C 109.7 69.295 *L 0.00153 *D sky130_fd_sc_hd__and3b_1
*I *519:A_N I *C 110.64 66.705 *L 0.00153 *D sky130_fd_sc_hd__and3b_1
*I *517:B I *C 107.04 65.595 *L 0.00152 *D sky130_fd_sc_hd__and3b_1
*I *554:A I *C 127.56 72.265 *L 0.00868 *D sky130_fd_sc_hd__xnor2_2
*I *522:A_N I *C 122.6 66.705 *L 0.00153 *D sky130_fd_sc_hd__and3b_1
*I *523:B I *C 130.32 70.405 *L 0.00152 *D sky130_fd_sc_hd__and3b_1
*I *520:B I *C 116.98 65.595 *L 0.00152 *D sky130_fd_sc_hd__and3b_1
*I *330:X O *C 100.92 110.965 *L 0 *D sky130_fd_sc_hd__buf_2

*CAP
1 *541:B 0.000498474
2 *532:B 0.000369132
3 *526:B 0.000193059
4 *529:B 0.000139892
5 *531:A_N 0.00012362
6 *528:A_N 0.000113964
7 *525:A_N 7.15852e-05
8 *538:B 8.36253e-05
9 *535:B 0.000101984
10 *540:A_N 0.000133336
11 *534:A_N 6.70552e-05
12 *523:B 3.59416e-05
13 *537:A_N 2.5034e-05
14 *554:A 0.000488162
15 *522:A_N 8.46386e-06
16 *520:B 0.000179529
17 *543:A_N 0.000144422
18 *519:A_N 2.2769e-05
19 *546:A_N 0.00073278
20 *516:A_N 0.000213921
21 *544:B 3.21865e-05
22 *517:B 0.000282764
23 *547:B 0.000163317
24 *330:X 0.000223994
25 *549:A_N 3.20077e-05
26 *550:B 0.000198781
27 *514:B 0.000885725
28 *513:A_N 5.57899e-05
29 *552:A_N 0.000711381
30 *553:B 3.7849e-05
31 *510:A_N 7.84993e-05
32 *511:B 9.4533e-05
33 *507:A_N 0.000103295
34 *508:B 3.48687e-05
35 *1:34 0.00102407
36 *1:35 0.00106823
37 *1:36 0.000670254
38 *1:37 0.000952721
39 *1:38 0.000570893
40 *1:39 0.00127357
41 *1:40 0.00188237
42 *1:41 0.0010007
43 *1:42 0.00118506
44 *1:43 0.00185692
45 *1:44 0.00183964
46 *1:45 0.00117183
47 *1:46 0.00199693
48 *1:47 0.00134522
49 *1:48 0.00175822
50 *1:49 0.000766873
51 *1:50 0.00103652
52 *1:51 0.000263393
53 *1:52 0.000425398
54 *1:53 0.00103015
55 *1:54 0.000381708
56 *1:55 0.00156504
57 *1:56 0.00114274
58 *1:57 0.000410676
59 *1:58 0.00230592
60 *1:59 0.00143385
61 *1:60 0.0013119
62 *1:61 0.0011642
63 *1:62 0.0013265
64 *1:63 0.000778139
65 *1:64 0.0012064
66 *1:65 0.00196117
67 *1:66 0.00166941
68 *1:67 0.000524879
69 *1:65 *328:61 2.20537e-06